ProjectFiles/Mikilua_updatedJun27/DSSfiles/SwitchesMikilua.dss
! Script for SwitchesMikilua.dss

! SWITCH DEFINITIONS
New Wiredata.switchwire GMR=0.02240 RAC=0.30600 NormAmps=531.0 Runits=mi radunits=in gmrunits=ft
New Linegeometry.switchgeom nconds=4 nphases=3 reduce=y cond=1 Wire=switchwire h=13.716 x=-1.2090 cond=2 Wire=switchwire h=13.716 x=-0.502 cond=3 Wire=switchwire h=13.716 x=0.5747 cond=4 Wire=switchwire h=14.648 x=0 !line geometry for siwtch
New Wiredata.switchwire1 GMR=0.00700 RAC=2.40970 NormAmps=120.0 Runits=mi radunits=in gmrunits=ft
New Linegeometry.switchgeom1 nconds=2 nphases=1 reduce=y cond=1 Wire=switchwire1  h=12.192 x=0 cond=2 Wire=switchwire1 h=10.668 x=0 ! line geom for switch 1ph
New Line.UG_257679_s Phases=3 Bus1=DEV_257678_s.1.2.3 Bus2=DEV_257678.1.2.3 Switch=y Geometry=switchgeom Length=1 Units=ft! closed switch
New Line.UG_257612_s Phases=1 Bus1=DEV_257681_s.3 Bus2=DEV_257681.3 Switch=y Geometry=switchgeom1 Length=1 Units=ft! closed switch
New Line.UG_259085_s Phases=1 Bus1=DEV_257874_s.2 Bus2=DEV_257874.2 Switch=y Geometry=switchgeom1 Length=1 Units=ft! closed switch
New Line.BB_258073_s Phases=1 Bus1=DEV_258195_s.1 Bus2=DEV_258195.1 Switch=y Geometry=switchgeom1 Length=1 Units=ft! closed switch
New Line.UG_259021_s Phases=1 Bus1=NODE_11021935_s.1 Bus2=NODE_11021935.1 Switch=y Geometry=switchgeom1 Length=1 Units=ft! closed switch
New Line.OH_259263_s Phases=3 Bus1=DEV_259251_s.1.2.3 Bus2=DEV_259251.1.2.3 Switch=y Geometry=switchgeom Length=1 Units=ft! closed switch
New Line.OH_260950_s Phases=3 Bus1=DEV_260953_s.1.2.3 Bus2=DEV_260953.1.2.3 Switch=y Geometry=switchgeom Length=1 Units=ft! closed switch
New Line.OH_261799_s Phases=3 Bus1=DEV_261796_s.1.2.3 Bus2=DEV_261796.1.2.3 Switch=y Geometry=switchgeom Length=1 Units=ft! closed switch
New Line.BB_263801_s Phases=1 Bus1=DEV_263690_s.3 Bus2=DEV_263690.3 Switch=y Geometry=switchgeom1 Length=1 Units=ft! closed switch
New Line.BB_263793_s Phases=1 Bus1=DEV_263717_s.1 Bus2=DEV_263717.1 Switch=y Geometry=switchgeom1 Length=1 Units=ft! closed switch
New Line.BB_263796_s Phases=1 Bus1=DEV_263720_s.2 Bus2=DEV_263720.2 Switch=y Geometry=switchgeom1 Length=1 Units=ft! closed switch
New Line.UG_263839_s Phases=3 Bus1=DEV_263840_s.1.2.3 Bus2=DEV_263840.1.2.3 Switch=y Geometry=switchgeom Length=1 Units=ft! closed switch
New Line.UG_263858_s Phases=3 Bus1=DEV_263843_s.1.2.3 Bus2=DEV_263843.1.2.3 Switch=y Geometry=switchgeom Length=1 Units=ft! closed switch
New Line.BB_263791_s Phases=1 Bus1=DEV_263919_s.3 Bus2=DEV_263919.3 Switch=y Geometry=switchgeom1 Length=1 Units=ft! closed switch
New Line.DEV_263851_263923_s Phases=3 Bus1=DEV_263923_s.1.2.3 Bus2=DEV_263923.1.2.3 Switch=y Geometry=switchgeom Length=1 Units=ft! closed switch
New Line.UG_264067_s Phases=1 Bus1=DEV_264068_s.3 Bus2=DEV_264068.3 Switch=y Geometry=switchgeom1 Length=1 Units=ft! closed switch
New Line.BB_264987_s Phases=1 Bus1=DEV_264980_s.1 Bus2=DEV_264980.1 Switch=y Geometry=switchgeom1 Length=1 Units=ft! closed switch
New Line.OH_264993_s Phases=3 Bus1=DEV_264992_s.1.2.3 Bus2=DEV_264992.1.2.3 Switch=y Geometry=switchgeom Length=1 Units=ft! closed switch
New Line.OH_265424_s Phases=3 Bus1=DEV_265416_s.1.2.3 Bus2=DEV_265416.1.2.3 Switch=y Geometry=switchgeom Length=1 Units=ft! closed switch
New Line.BB_51045964_s Phases=1 Bus1=DEV_51045966_s.3 Bus2=DEV_51045966.3 Switch=y Geometry=switchgeom1 Length=1 Units=ft! closed switch
New Line.OH_51055150_s Phases=1 Bus1=NODE_30002704_s.1 Bus2=NODE_30002704.1 Switch=y Geometry=switchgeom1 Length=1 Units=ft! closed switch
New Line.OH_51055167_s Phases=1 Bus1=NODE_31148330_s.2 Bus2=NODE_31148330.2 Switch=y Geometry=switchgeom1 Length=1 Units=ft! closed switch
New Line.OH_51055175_s Phases=1 Bus1=NODE_31148338_s.3 Bus2=NODE_31148338.3 Switch=y Geometry=switchgeom1 Length=1 Units=ft! closed switch
